Version 4
SHEET 1 1404 680
WIRE -240 80 -272 80
WIRE -112 80 -160 80
WIRE -48 80 -112 80
WIRE 80 80 32 80
WIRE 128 80 80 80
WIRE 240 80 192 80
WIRE 304 80 240 80
WIRE 432 80 384 80
WIRE 480 80 432 80
WIRE 592 80 544 80
WIRE -400 144 -448 144
WIRE -576 192 -576 128
WIRE -576 192 -624 192
WIRE -320 192 -320 144
WIRE -272 192 -272 80
WIRE -272 192 -320 192
WIRE -224 192 -272 192
WIRE 80 192 80 80
WIRE 128 192 80 192
WIRE 432 192 432 80
WIRE 480 192 432 192
WIRE -624 208 -624 192
WIRE -112 208 -112 80
WIRE -112 208 -160 208
WIRE 240 208 240 80
WIRE 240 208 192 208
WIRE 592 208 592 80
WIRE 592 208 544 208
WIRE 640 208 592 208
WIRE -224 224 -272 224
WIRE 128 224 80 224
WIRE 480 224 432 224
WIRE -400 240 -432 240
WIRE -320 240 -320 192
WIRE -272 240 -272 224
WIRE 80 240 80 224
WIRE 432 240 432 224
WIRE -576 256 -576 192
WIRE -432 304 -432 240
WIRE 240 304 240 208
WIRE 240 304 -432 304
WIRE -448 320 -448 144
WIRE 592 320 592 208
WIRE 592 320 -448 320
FLAG -576 48 +V
FLAG -576 336 -V
FLAG 512 176 +V
FLAG 512 240 -V
FLAG -272 240 0
FLAG 80 240 0
FLAG 432 240 0
FLAG -624 208 0
FLAG 640 208 OUT
IOPIN 640 208 Out
FLAG 432 80 c1
FLAG 80 80 c2
FLAG 240 208 _y
FLAG 592 208 y
SYMBOL res 400 64 R90
WINDOW 0 0 56 VBottom 2
WINDOW 3 32 56 VTop 2
SYMATTR InstName R1
SYMATTR Value 10k
SYMBOL cap 544 64 R90
WINDOW 0 0 32 VBottom 2
WINDOW 3 32 33 VTop 2
SYMATTR InstName C1
SYMATTR Value 0.1m
SYMBOL res 48 64 R90
WINDOW 0 0 56 VBottom 2
WINDOW 3 32 56 VTop 2
SYMATTR InstName R2
SYMATTR Value 10k
SYMBOL cap 192 64 R90
WINDOW 0 0 32 VBottom 2
WINDOW 3 32 32 VTop 2
SYMATTR InstName C2
SYMATTR Value 0.1m
SYMBOL res -144 64 R90
WINDOW 0 0 56 VBottom 2
WINDOW 3 32 56 VTop 2
SYMATTR InstName R3
SYMATTR Value 30k
SYMBOL res -304 128 R90
WINDOW 0 0 56 VBottom 2
WINDOW 3 32 56 VTop 2
SYMATTR InstName R4
SYMATTR Value 6k
SYMBOL res -304 224 R90
WINDOW 0 0 56 VBottom 2
WINDOW 3 32 56 VTop 2
SYMATTR InstName R5
SYMATTR Value 5k
SYMBOL OpAmps\\UniversalOpAmp2 512 208 R0
SYMATTR InstName U1
SYMBOL OpAmps\\opamp -192 144 R0
SYMATTR InstName U3
SYMBOL OpAmps\\opamp 160 144 R0
SYMATTR InstName U2
SYMBOL voltage -576 32 R0
WINDOW 123 0 0 Left 0
WINDOW 39 0 0 Left 0
SYMATTR InstName V1
SYMATTR Value 15
SYMBOL voltage -576 240 R0
WINDOW 123 0 0 Left 0
WINDOW 39 0 0 Left 0
SYMATTR InstName V2
SYMATTR Value 15
TEXT -8 -80 Left 2 !.tran 0.75sec
TEXT -8 -40 Left 2 !.lib opamp.sub
TEXT -24 392 Left 2 !.ic V(y)=2 V(_y)=-5
TEXT -24 432 Left 2 !.ic V(c1)=0 V(c2)=0
